$DATA1 SOURCE='PrimeSim HSPICE' VERSION='U-2023.03-SP2 linux6' PARAM_COUNT=1
$OPTION MEASFORM=1
.TITLE '*  generated for: finesimpro'
data_time tdc tcq tdq temper alter#
 1.400e-08  1.012e-09  5.219e-10  1.534e-09   25.0000 1
 1.401e-08  1.002e-09  5.220e-10  1.524e-09   25.0000 1
 1.402e-08  9.924e-10  5.227e-10  1.515e-09   25.0000 1
 1.403e-08  9.825e-10  5.224e-10  1.505e-09   25.0000 1
 1.404e-08  9.721e-10  5.236e-10  1.496e-09   25.0000 1
 1.405e-08  9.622e-10  5.208e-10  1.483e-09   25.0000 1
 1.406e-08  9.524e-10  5.220e-10  1.474e-09   25.0000 1
 1.407e-08  9.423e-10  5.224e-10  1.465e-09   25.0000 1
 1.408e-08  9.324e-10  5.222e-10  1.455e-09   25.0000 1
 1.409e-08  9.224e-10  5.209e-10  1.443e-09   25.0000 1
 1.410e-08  9.123e-10  5.220e-10  1.434e-09   25.0000 1
 1.411e-08  9.025e-10  5.212e-10  1.424e-09   25.0000 1
 1.412e-08  8.926e-10  5.224e-10  1.415e-09   25.0000 1
 1.413e-08  8.820e-10  5.229e-10  1.405e-09   25.0000 1
 1.414e-08  8.723e-10  5.231e-10  1.395e-09   25.0000 1
 1.415e-08  8.623e-10  5.220e-10  1.384e-09   25.0000 1
 1.416e-08  8.525e-10  5.227e-10  1.375e-09   25.0000 1
 1.417e-08  8.426e-10  5.235e-10  1.366e-09   25.0000 1
 1.418e-08  8.325e-10  5.212e-10  1.354e-09   25.0000 1
 1.419e-08  8.219e-10  5.217e-10  1.344e-09   25.0000 1
 1.420e-08  8.120e-10  5.208e-10  1.333e-09   25.0000 1
 1.421e-08  8.023e-10  5.222e-10  1.324e-09   25.0000 1
 1.422e-08  7.924e-10  5.223e-10  1.315e-09   25.0000 1
 1.423e-08  7.825e-10  5.226e-10  1.305e-09   25.0000 1
 1.424e-08  7.726e-10  5.200e-10  1.293e-09   25.0000 1
 1.425e-08  7.626e-10  5.231e-10  1.286e-09   25.0000 1
 1.426e-08  7.520e-10  5.204e-10  1.272e-09   25.0000 1
 1.427e-08  7.424e-10  5.219e-10  1.264e-09   25.0000 1
 1.428e-08  7.325e-10  5.226e-10  1.255e-09   25.0000 1
 1.429e-08  7.226e-10  5.204e-10  1.243e-09   25.0000 1
 1.430e-08  7.126e-10  5.231e-10  1.236e-09   25.0000 1
 1.431e-08  7.023e-10  5.228e-10  1.225e-09   25.0000 1
 1.432e-08  6.925e-10  5.228e-10  1.215e-09   25.0000 1
 1.433e-08  6.826e-10  5.230e-10  1.206e-09   25.0000 1
 1.434e-08  6.722e-10  5.222e-10  1.194e-09   25.0000 1
 1.435e-08  6.622e-10  5.223e-10  1.185e-09   25.0000 1
 1.436e-08  6.525e-10  5.222e-10  1.175e-09   25.0000 1
 1.437e-08  6.426e-10  5.227e-10  1.165e-09   25.0000 1
 1.438e-08  6.320e-10  5.206e-10  1.153e-09   25.0000 1
 1.439e-08  6.225e-10  5.219e-10  1.144e-09   25.0000 1
 1.440e-08  6.121e-10  5.220e-10  1.134e-09   25.0000 1
 1.441e-08  6.022e-10  5.228e-10  1.125e-09   25.0000 1
 1.442e-08  5.922e-10  5.207e-10  1.113e-09   25.0000 1
 1.443e-08  5.823e-10  5.224e-10  1.105e-09   25.0000 1
 1.444e-08  5.721e-10  5.228e-10  1.095e-09   25.0000 1
 1.445e-08  5.621e-10  5.202e-10  1.082e-09   25.0000 1
 1.446e-08  5.524e-10  5.220e-10  1.074e-09   25.0000 1
 1.447e-08  5.424e-10  5.223e-10  1.065e-09   25.0000 1
 1.448e-08  5.321e-10  5.215e-10  1.054e-09   25.0000 1
 1.449e-08  5.222e-10  5.193e-10  1.041e-09   25.0000 1
 1.450e-08  5.127e-10  5.191e-10  1.032e-09   25.0000 1
 1.451e-08  5.020e-10  5.195e-10  1.022e-09   25.0000 1
 1.452e-08  4.922e-10  5.212e-10  1.013e-09   25.0000 1
 1.453e-08  4.823e-10  5.215e-10  1.004e-09   25.0000 1
 1.454e-08  4.720e-10  5.220e-10  9.939e-10   25.0000 1
 1.455e-08  4.625e-10  5.212e-10  9.837e-10   25.0000 1
 1.456e-08  4.519e-10  5.221e-10  9.739e-10   25.0000 1
 1.457e-08  4.421e-10  5.189e-10  9.610e-10   25.0000 1
 1.458e-08  4.325e-10  5.203e-10  9.528e-10   25.0000 1
 1.459e-08  4.218e-10  5.216e-10  9.434e-10   25.0000 1
 1.460e-08  4.117e-10  5.212e-10  9.330e-10   25.0000 1
 1.461e-08  4.022e-10  5.177e-10  9.199e-10   25.0000 1
 1.462e-08  3.923e-10  5.182e-10  9.106e-10   25.0000 1
 1.463e-08  3.824e-10  5.182e-10  9.006e-10   25.0000 1
 1.464e-08  3.724e-10  5.213e-10  8.937e-10   25.0000 1
 1.465e-08  3.620e-10  5.199e-10  8.819e-10   25.0000 1
 1.466e-08  3.521e-10  5.205e-10  8.725e-10   25.0000 1
 1.467e-08  3.423e-10  5.198e-10  8.621e-10   25.0000 1
 1.468e-08  3.323e-10  5.173e-10  8.496e-10   25.0000 1
 1.469e-08  3.219e-10  5.198e-10  8.417e-10   25.0000 1
 1.470e-08  3.123e-10  5.197e-10  8.320e-10   25.0000 1
 1.471e-08  3.025e-10  5.207e-10  8.232e-10   25.0000 1
 1.472e-08  2.919e-10  5.211e-10  8.130e-10   25.0000 1
 1.473e-08  2.828e-10  5.189e-10  8.017e-10   25.0000 1
 1.474e-08  2.720e-10  5.223e-10  7.943e-10   25.0000 1
 1.475e-08  2.625e-10  5.233e-10  7.858e-10   25.0000 1
 1.476e-08  2.524e-10  5.247e-10  7.770e-10   25.0000 1
 1.477e-08  2.420e-10  5.263e-10  7.683e-10   25.0000 1
 1.478e-08  2.324e-10  5.368e-10  7.692e-10   25.0000 1
 1.479e-08  2.226e-10  5.788e-10  8.013e-10   25.0000 1
 1.480e-08  2.120e-10    failed    failed   25.0000 1
 1.481e-08  2.025e-10    failed    failed   25.0000 1
 1.482e-08  1.924e-10    failed    failed   25.0000 1
 1.483e-08  1.819e-10    failed    failed   25.0000 1
 1.484e-08  1.722e-10    failed    failed   25.0000 1
 1.485e-08  1.625e-10    failed    failed   25.0000 1
 1.486e-08  1.519e-10    failed    failed   25.0000 1
 1.487e-08  1.426e-10    failed    failed   25.0000 1
 1.488e-08  1.322e-10    failed    failed   25.0000 1
 1.489e-08  1.223e-10    failed    failed   25.0000 1
 1.490e-08  1.123e-10    failed    failed   25.0000 1
 1.491e-08  1.021e-10    failed    failed   25.0000 1
 1.492e-08  9.221e-11    failed    failed   25.0000 1
 1.493e-08  8.207e-11    failed    failed   25.0000 1
 1.494e-08  7.205e-11    failed    failed   25.0000 1
 1.495e-08  6.223e-11    failed    failed   25.0000 1
 1.496e-08  5.233e-11    failed    failed   25.0000 1
 1.497e-08  4.195e-11    failed    failed   25.0000 1
 1.498e-08  3.197e-11    failed    failed   25.0000 1
 1.499e-08  2.228e-11    failed    failed   25.0000 1
 1.500e-08  1.236e-11    failed    failed   25.0000 1
 1.501e-08  2.064e-12    failed    failed   25.0000 1
 1.502e-08 -7.875e-12    failed    failed   25.0000 1
 1.503e-08 -1.790e-11    failed    failed   25.0000 1
 1.504e-08 -2.770e-11    failed    failed   25.0000 1
 1.505e-08 -3.757e-11    failed    failed   25.0000 1
 1.506e-08 -4.751e-11    failed    failed   25.0000 1
 1.507e-08 -5.763e-11    failed    failed   25.0000 1
 1.508e-08 -6.767e-11    failed    failed   25.0000 1
 1.509e-08 -7.767e-11    failed    failed   25.0000 1
 1.510e-08 -8.767e-11    failed    failed   25.0000 1
 1.511e-08 -9.767e-11    failed    failed   25.0000 1
 1.512e-08 -1.077e-10    failed    failed   25.0000 1
 1.513e-08 -1.177e-10    failed    failed   25.0000 1
 1.514e-08 -1.277e-10    failed    failed   25.0000 1
 1.515e-08 -1.377e-10    failed    failed   25.0000 1
 1.516e-08 -1.477e-10    failed    failed   25.0000 1
 1.517e-08 -1.577e-10    failed    failed   25.0000 1
 1.518e-08 -1.677e-10    failed    failed   25.0000 1
 1.519e-08 -1.777e-10    failed    failed   25.0000 1
 1.520e-08 -1.877e-10    failed    failed   25.0000 1
 1.521e-08 -1.977e-10    failed    failed   25.0000 1
 1.522e-08 -2.077e-10    failed    failed   25.0000 1
 1.523e-08 -2.177e-10    failed    failed   25.0000 1
 1.524e-08 -2.277e-10    failed    failed   25.0000 1
 1.525e-08 -2.377e-10    failed    failed   25.0000 1
 1.526e-08 -2.477e-10    failed    failed   25.0000 1
 1.527e-08 -2.577e-10    failed    failed   25.0000 1
 1.528e-08 -2.677e-10    failed    failed   25.0000 1
 1.529e-08 -2.777e-10    failed    failed   25.0000 1
 1.530e-08 -2.877e-10    failed    failed   25.0000 1
 1.531e-08 -2.977e-10    failed    failed   25.0000 1
 1.532e-08 -3.077e-10    failed    failed   25.0000 1
 1.533e-08 -3.177e-10    failed    failed   25.0000 1
 1.534e-08 -3.277e-10    failed    failed   25.0000 1
 1.535e-08 -3.377e-10    failed    failed   25.0000 1
 1.536e-08 -3.477e-10    failed    failed   25.0000 1
 1.537e-08 -3.577e-10    failed    failed   25.0000 1
 1.538e-08 -3.677e-10    failed    failed   25.0000 1
 1.539e-08 -3.777e-10    failed    failed   25.0000 1
 1.540e-08 -3.877e-10    failed    failed   25.0000 1
 1.541e-08 -3.977e-10    failed    failed   25.0000 1
 1.542e-08 -4.077e-10    failed    failed   25.0000 1
 1.543e-08 -4.177e-10    failed    failed   25.0000 1
 1.544e-08 -4.277e-10    failed    failed   25.0000 1
 1.545e-08 -4.377e-10    failed    failed   25.0000 1
 1.546e-08 -4.477e-10    failed    failed   25.0000 1
 1.547e-08 -4.577e-10    failed    failed   25.0000 1
 1.548e-08 -4.677e-10    failed    failed   25.0000 1
 1.549e-08 -4.777e-10    failed    failed   25.0000 1
 1.550e-08 -4.877e-10    failed    failed   25.0000 1
