$DATA1 SOURCE='PrimeSim HSPICE' VERSION='U-2023.03-SP2 linux6' PARAM_COUNT=1
$OPTION MEASFORM=1
.TITLE '*  generated for: finesimpro'
time_offset a_to_s a_to_co b_to_s b_to_co ci_to_s ci_to_co temper alter#
 2.000e-09 -4.790e-09  5.233e-09 -1.479e-08 -4.767e-09  2.102e-10  1.023e-08   25.0000 1
 7.000e-09  5.442e-09  5.233e-09 -4.558e-09 -4.767e-09  5.442e-09  5.233e-09   25.0000 1
 1.200e-08 -4.558e-09 -4.767e-09 -4.558e-09 -4.767e-09  4.422e-10  2.334e-10   25.0000 1
 1.700e-08  4.950e-10  3.349e-10  4.950e-10  3.349e-10  4.950e-10  3.349e-10   25.0000 1
 2.200e-08 -4.545e-09 -4.780e-09 -1.455e-08 -1.478e-08  4.547e-10  2.204e-10   25.0000 1
 2.700e-08  5.280e-09  1.019e-08 -4.720e-09  1.936e-10  5.280e-09  1.019e-08   25.0000 1
 3.200e-08 -4.720e-09  1.936e-10 -4.720e-09  1.936e-10  2.798e-10  5.194e-09   25.0000 1
 3.700e-08  3.905e-10  1.936e-10  3.905e-10  1.936e-10  3.905e-10  1.936e-10   25.0000 1
 4.200e-08    failed    failed    failed    failed  2.108e-10    failed   25.0000 1
