$DATA1 SOURCE='PrimeSim HSPICE' VERSION='U-2023.03-SP2 linux6' PARAM_COUNT=1
$OPTION MEASFORM=1
.TITLE '*  generated for: finesimpro'
time_offset a_to_s a_to_co b_to_s b_to_co ci_to_s ci_to_co temper alter#
 2.000e-09 -4.768e-09  5.248e-09  2.324e-10  1.025e-08 -1.477e-08 -4.752e-09   25.0000 1
 7.000e-09  5.415e-09  5.248e-09  5.415e-09  5.248e-09 -4.585e-09 -4.752e-09   25.0000 1
 1.200e-08 -4.585e-09 -4.752e-09  4.151e-10  2.481e-10 -4.585e-09 -4.752e-09   25.0000 1
 1.700e-08  5.176e-10  3.664e-10  5.176e-10  3.664e-10  5.176e-10  3.664e-10   25.0000 1
 2.200e-08 -4.529e-09 -4.781e-09  4.714e-10  2.186e-10 -1.453e-08 -1.478e-08   25.0000 1
 2.700e-08  5.283e-09  1.019e-08  5.283e-09  1.019e-08 -4.717e-09  1.935e-10   25.0000 1
 3.200e-08 -4.717e-09  1.935e-10  2.826e-10  5.193e-09 -4.717e-09  1.935e-10   25.0000 1
 3.700e-08  3.873e-10  1.935e-10  3.873e-10  1.935e-10  3.873e-10  1.935e-10   25.0000 1
 4.200e-08    failed    failed  2.326e-10    failed    failed    failed   25.0000 1
