$DATA1 SOURCE='PrimeSim HSPICE' VERSION='U-2023.03-SP2 linux6' PARAM_COUNT=1
$OPTION MEASFORM=1
.TITLE '*  generated for: finesimpro'
time_offset a_to_s a_to_co b_to_s b_to_co ci_to_s ci_to_co temper alter#
 2.000e-09  2.358e-10  1.024e-08 -1.476e-08 -4.756e-09 -4.764e-09  5.244e-09   25.0000 1
 7.000e-09  5.456e-09  5.244e-09 -4.544e-09 -4.756e-09  5.456e-09  5.244e-09   25.0000 1
 1.200e-08  4.558e-10  2.441e-10 -4.544e-09 -4.756e-09 -4.544e-09 -4.756e-09   25.0000 1
 1.700e-08  5.067e-10  3.333e-10  5.067e-10  3.333e-10  5.067e-10  3.333e-10   25.0000 1
 2.200e-08  4.170e-10  2.459e-10 -1.458e-08 -1.475e-08 -4.583e-09 -4.754e-09   25.0000 1
 2.700e-08  5.291e-09  1.018e-08 -4.709e-09  1.813e-10  5.291e-09  1.018e-08   25.0000 1
 3.200e-08  2.908e-10  5.181e-09 -4.709e-09  1.813e-10 -4.709e-09  1.813e-10   25.0000 1
 3.700e-08  4.137e-10  1.813e-10  4.137e-10  1.813e-10  4.137e-10  1.813e-10   25.0000 1
 4.200e-08  2.367e-10    failed    failed    failed    failed    failed   25.0000 1
