$DATA1 SOURCE='PrimeSim HSPICE' VERSION='U-2023.03-SP2 linux6' PARAM_COUNT=1
$OPTION MEASFORM=1
.TITLE '*  generated for: finesimpro'
time_offset a_to_s a_to_co b_to_s b_to_co ci_to_s ci_to_co temper alter#
 2.000e-09 -1.462e-08 -4.637e-09  3.807e-10  1.036e-08 -4.619e-09  5.363e-09   25.0000 1
 7.000e-09 -4.433e-09 -4.637e-09  5.567e-09  5.363e-09  5.567e-09  5.363e-09   25.0000 1
 1.200e-08 -4.433e-09 -4.637e-09  5.666e-10  3.629e-10 -4.433e-09 -4.637e-09   25.0000 1
 1.700e-08  4.627e-10  2.157e-10  4.627e-10  2.157e-10  4.627e-10  2.157e-10   25.0000 1
 2.200e-08 -1.447e-08 -1.462e-08  5.298e-10  3.763e-10 -4.470e-09 -4.624e-09   25.0000 1
 2.700e-08 -4.486e-09  1.597e-10  5.514e-09  1.016e-08  5.514e-09  1.016e-08   25.0000 1
 3.200e-08 -4.486e-09  1.597e-10  5.145e-10  5.160e-09 -4.486e-09  1.597e-10   25.0000 1
 3.700e-08  2.217e-10  1.597e-10  2.217e-10  1.597e-10  2.217e-10  1.597e-10   25.0000 1
 4.200e-08    failed    failed  3.813e-10    failed    failed    failed   25.0000 1
