$DATA1 SOURCE='PrimeSim HSPICE' VERSION='U-2023.03-SP2 linux6' PARAM_COUNT=1
$OPTION MEASFORM=1
.TITLE '*  generated for: finesimpro'
time_offset a_to_s a_to_co b_to_s b_to_co ci_to_s ci_to_co temper alter#
 2.000e-09  2.358e-10  1.025e-08 -4.764e-09  5.246e-09 -1.476e-08 -4.754e-09   25.0000 1
 7.000e-09  5.417e-09  5.246e-09  5.417e-09  5.246e-09 -4.583e-09 -4.754e-09   25.0000 1
 1.200e-08  4.174e-10  2.456e-10 -4.583e-09 -4.754e-09 -4.583e-09 -4.754e-09   25.0000 1
 1.700e-08  5.188e-10  3.674e-10  5.188e-10  3.674e-10  5.188e-10  3.674e-10   25.0000 1
 2.200e-08  4.558e-10  2.436e-10 -4.544e-09 -4.756e-09 -1.454e-08 -1.476e-08   25.0000 1
 2.700e-08  5.291e-09  1.018e-08  5.291e-09  1.018e-08 -4.709e-09  1.812e-10   25.0000 1
 3.200e-08  2.906e-10  5.181e-09 -4.709e-09  1.812e-10 -4.709e-09  1.812e-10   25.0000 1
 3.700e-08  4.099e-10  1.812e-10  4.099e-10  1.812e-10  4.099e-10  1.812e-10   25.0000 1
 4.200e-08  2.367e-10    failed    failed    failed    failed    failed   25.0000 1
