$DATA1 SOURCE='PrimeSim HSPICE' VERSION='U-2023.03-SP2 linux6' PARAM_COUNT=1
$OPTION MEASFORM=1
.TITLE '*  generated for: finesimpro'
time_offset a_to_s a_to_co b_to_s b_to_co ci_to_s ci_to_co temper alter#
 2.000e-09 -4.710e-09  5.346e-09 -1.471e-08 -4.654e-09  2.902e-10  1.035e-08   25.0000 1
 7.000e-09  5.518e-09  5.346e-09 -4.482e-09 -4.654e-09  5.518e-09  5.346e-09   25.0000 1
 1.200e-08 -4.482e-09 -4.654e-09 -4.482e-09 -4.654e-09  5.180e-10  3.462e-10   25.0000 1
 1.700e-08  4.290e-10  2.260e-10  4.290e-10  2.260e-10  4.290e-10  2.260e-10   25.0000 1
 2.200e-08 -4.517e-09 -4.690e-09 -1.452e-08 -1.469e-08  4.830e-10  3.097e-10   25.0000 1
 2.700e-08  5.453e-09  1.016e-08 -4.547e-09  1.596e-10  5.453e-09  1.016e-08   25.0000 1
 3.200e-08 -4.547e-09  1.596e-10 -4.547e-09  1.596e-10  4.532e-10  5.160e-09   25.0000 1
 3.700e-08  2.085e-10  1.596e-10  2.085e-10  1.596e-10  2.085e-10  1.596e-10   25.0000 1
 4.200e-08    failed    failed    failed    failed  2.910e-10    failed   25.0000 1
