$DATA1 SOURCE='PrimeSim HSPICE' VERSION='U-2023.03-SP2 linux6' PARAM_COUNT=1
$OPTION MEASFORM=1
.TITLE ''
data_time tdc tcq tdq temper alter#
 1.510e-08  1.213e-11    failed    failed   25.0000 1
 1.511e-08  2.003e-12    failed    failed   25.0000 1
 1.512e-08 -8.240e-12    failed    failed   25.0000 1
 1.513e-08 -1.823e-11    failed    failed   25.0000 1
 1.514e-08 -2.794e-11    failed    failed   25.0000 1
 1.515e-08 -3.794e-11  8.269e-10  1.339e-09   25.0000 1
 1.516e-08 -4.788e-11  7.921e-10  1.304e-09   25.0000 1
 1.517e-08 -5.816e-11  7.865e-10  1.298e-09   25.0000 1
 1.518e-08 -6.794e-11  7.841e-10  1.296e-09   25.0000 1
 1.519e-08 -7.791e-11  7.843e-10  1.296e-09   25.0000 1
 1.520e-08 -8.791e-11  7.846e-10  1.297e-09   25.0000 1
 1.521e-08 -9.791e-11  7.848e-10  1.297e-09   25.0000 1
 1.522e-08 -1.079e-10  7.843e-10  1.296e-09   25.0000 1
 1.523e-08 -1.179e-10  7.840e-10  1.296e-09   25.0000 1
 1.524e-08 -1.279e-10  7.849e-10  1.297e-09   25.0000 1
 1.525e-08 -1.379e-10  7.860e-10  1.298e-09   25.0000 1
 1.526e-08 -1.479e-10  7.863e-10  1.298e-09   25.0000 1
 1.527e-08 -1.579e-10  7.867e-10  1.299e-09   25.0000 1
 1.528e-08 -1.679e-10  7.858e-10  1.298e-09   25.0000 1
 1.529e-08 -1.779e-10  7.872e-10  1.299e-09   25.0000 1
 1.530e-08 -1.879e-10  7.854e-10  1.297e-09   25.0000 1
 1.531e-08 -1.979e-10  7.855e-10  1.298e-09   25.0000 1
 1.532e-08 -2.079e-10  7.864e-10  1.299e-09   25.0000 1
 1.533e-08 -2.179e-10  7.859e-10  1.298e-09   25.0000 1
 1.534e-08 -2.279e-10  7.860e-10  1.298e-09   25.0000 1
 1.535e-08 -2.379e-10  7.864e-10  1.298e-09   25.0000 1
 1.536e-08 -2.479e-10  7.862e-10  1.298e-09   25.0000 1
 1.537e-08 -2.579e-10  7.869e-10  1.299e-09   25.0000 1
 1.538e-08 -2.679e-10  7.859e-10  1.298e-09   25.0000 1
 1.539e-08 -2.779e-10  7.866e-10  1.299e-09   25.0000 1
 1.540e-08 -2.879e-10  7.857e-10  1.298e-09   25.0000 1
 1.541e-08 -2.979e-10  7.868e-10  1.299e-09   25.0000 1
 1.542e-08 -3.079e-10  7.877e-10  1.300e-09   25.0000 1
 1.543e-08 -3.179e-10  7.860e-10  1.298e-09   25.0000 1
 1.544e-08 -3.279e-10  7.865e-10  1.299e-09   25.0000 1
 1.545e-08 -3.379e-10  7.868e-10  1.299e-09   25.0000 1
 1.546e-08 -3.479e-10  7.861e-10  1.298e-09   25.0000 1
 1.547e-08 -3.579e-10  7.863e-10  1.298e-09   25.0000 1
 1.548e-08 -3.679e-10  7.862e-10  1.298e-09   25.0000 1
 1.549e-08 -3.779e-10  7.857e-10  1.298e-09   25.0000 1
 1.550e-08 -3.879e-10  7.872e-10  1.299e-09   25.0000 1
