$DATA1 SOURCE='PrimeSim HSPICE' VERSION='U-2023.03-SP2 linux6' PARAM_COUNT=1
$OPTION MEASFORM=1
.TITLE '*  generated for: finesimpro'
time_offset a_to_s a_to_co b_to_s b_to_co ci_to_s ci_to_co temper alter#
 2.000e-09  4.168e-10  1.040e-08 -4.583e-09  5.399e-09 -1.458e-08 -4.601e-09   25.0000 1
 7.000e-09  5.554e-09  5.399e-09  5.554e-09  5.399e-09 -4.446e-09 -4.601e-09   25.0000 1
 1.200e-08  5.543e-10  3.994e-10 -4.446e-09 -4.601e-09 -4.446e-09 -4.601e-09   25.0000 1
 1.700e-08  3.916e-10  2.419e-10  3.916e-10  2.419e-10  3.916e-10  2.419e-10   25.0000 1
 2.200e-08  5.672e-10  3.913e-10 -4.433e-09 -4.609e-09 -1.443e-08 -1.461e-08   25.0000 1
 2.700e-08  5.542e-09  1.016e-08  5.542e-09  1.016e-08 -4.458e-09  1.560e-10   25.0000 1
 3.200e-08  5.417e-10  5.156e-09 -4.458e-09  1.560e-10 -4.458e-09  1.560e-10   25.0000 1
 3.700e-08  2.228e-10  1.560e-10  2.228e-10  1.560e-10  2.228e-10  1.560e-10   25.0000 1
 4.200e-08  4.168e-10    failed    failed    failed    failed    failed   25.0000 1
