$DATA1 SOURCE='PrimeSim HSPICE' VERSION='U-2023.03-SP2 linux6' PARAM_COUNT=1
$OPTION MEASFORM=1
.TITLE '*  generated for: finesimpro'
time_offset a_to_s a_to_co b_to_s b_to_co ci_to_s ci_to_co temper alter#
 2.000e-09 -1.471e-08 -4.691e-09 -4.710e-09  5.309e-09  2.902e-10  1.031e-08   25.0000 1
 7.000e-09 -4.495e-09 -4.691e-09  5.505e-09  5.309e-09  5.505e-09  5.309e-09   25.0000 1
 1.200e-08 -4.495e-09 -4.691e-09 -4.495e-09 -4.691e-09  5.050e-10  3.085e-10   25.0000 1
 1.700e-08  4.498e-10  2.160e-10  4.498e-10  2.160e-10  4.498e-10  2.160e-10   25.0000 1
 2.200e-08 -1.449e-08 -1.465e-08 -4.490e-09 -4.653e-09  5.097e-10  3.469e-10   25.0000 1
 2.700e-08 -4.545e-09  1.630e-10  5.455e-09  1.016e-08  5.455e-09  1.016e-08   25.0000 1
 3.200e-08 -4.545e-09  1.630e-10 -4.545e-09  1.630e-10  4.553e-10  5.163e-09   25.0000 1
 3.700e-08  2.057e-10  1.630e-10  2.057e-10  1.630e-10  2.057e-10  1.630e-10   25.0000 1
 4.200e-08    failed    failed    failed    failed  2.901e-10    failed   25.0000 1
