$DATA1 SOURCE='PrimeSim HSPICE' VERSION='U-2023.03-SP2 linux6' PARAM_COUNT=2
$OPTION MEASFORM=1
.TITLE ''
index p1 bestratio tpdr tpdf tpd diff temper alter#
5   16.0000    4.0000  1.372e-10  1.302e-10  1.337e-10  6.985e-12   70.0000 1
