$DATA1 SOURCE='PrimeSim HSPICE' VERSION='U-2023.03-SP2 linux6' PARAM_COUNT=1
$OPTION MEASFORM=1
.TITLE '*  generated for: finesimpro'
time_offset a_to_s a_to_co b_to_s b_to_co ci_to_s ci_to_co temper alter#
 2.000e-09 -1.477e-08 -4.765e-09  2.324e-10  1.024e-08 -4.768e-09  5.235e-09   25.0000 1
 7.000e-09 -4.511e-09 -4.765e-09  5.489e-09  5.235e-09  5.489e-09  5.235e-09   25.0000 1
 1.200e-08 -4.511e-09 -4.765e-09  4.894e-10  2.350e-10 -4.511e-09 -4.765e-09   25.0000 1
 1.700e-08  4.626e-10  2.751e-10  4.626e-10  2.751e-10  4.626e-10  2.751e-10   25.0000 1
 2.200e-08 -1.459e-08 -1.475e-08  4.145e-10  2.479e-10 -4.585e-09 -4.752e-09   25.0000 1
 2.700e-08 -4.718e-09  1.943e-10  5.282e-09  1.019e-08  5.282e-09  1.019e-08   25.0000 1
 3.200e-08 -4.718e-09  1.943e-10  2.825e-10  5.194e-09 -4.718e-09  1.943e-10   25.0000 1
 3.700e-08  4.342e-10  1.943e-10  4.342e-10  1.943e-10  4.342e-10  1.943e-10   25.0000 1
 4.200e-08    failed    failed  2.324e-10    failed    failed    failed   25.0000 1
