$DATA1 SOURCE='PrimeSim HSPICE' VERSION='U-2023.03-SP2 linux6' PARAM_COUNT=1
$OPTION MEASFORM=1
.TITLE '*  generated for: finesimpro'
time_offset a_to_s a_to_co b_to_s b_to_co ci_to_s ci_to_co temper alter#
 2.000e-09 -4.619e-09  5.376e-09  3.807e-10  1.038e-08 -1.462e-08 -4.624e-09   25.0000 1
 7.000e-09  5.529e-09  5.376e-09  5.529e-09  5.376e-09 -4.471e-09 -4.624e-09   25.0000 1
 1.200e-08 -4.471e-09 -4.624e-09  5.290e-10  3.756e-10 -4.471e-09 -4.624e-09   25.0000 1
 1.700e-08  3.913e-10  2.414e-10  3.913e-10  2.414e-10  3.913e-10  2.414e-10   25.0000 1
 2.200e-08 -4.493e-09 -4.692e-09  5.069e-10  3.075e-10 -1.449e-08 -1.469e-08   25.0000 1
 2.700e-08  5.513e-09  1.016e-08  5.513e-09  1.016e-08 -4.487e-09  1.596e-10   25.0000 1
 3.200e-08 -4.487e-09  1.596e-10  5.132e-10  5.160e-09 -4.487e-09  1.596e-10   25.0000 1
 3.700e-08  2.098e-10  1.596e-10  2.098e-10  1.596e-10  2.098e-10  1.596e-10   25.0000 1
 4.200e-08    failed    failed  3.812e-10    failed    failed    failed   25.0000 1
