$DATA1 SOURCE='PrimeSim HSPICE' VERSION='U-2023.03-SP2 linux6' PARAM_COUNT=1
$OPTION MEASFORM=1
.TITLE '*  generated for: finesimpro'
data_time tdc tcq tdq temper alter#
 1.400e-08  1.012e-09  4.241e-10  1.436e-09   25.0000 1
 1.401e-08  1.002e-09  4.239e-10  1.426e-09   25.0000 1
 1.402e-08  9.925e-10  4.235e-10  1.416e-09   25.0000 1
 1.403e-08  9.825e-10  4.239e-10  1.406e-09   25.0000 1
 1.404e-08  9.722e-10  4.235e-10  1.396e-09   25.0000 1
 1.405e-08  9.619e-10  4.236e-10  1.386e-09   25.0000 1
 1.406e-08  9.519e-10  4.237e-10  1.376e-09   25.0000 1
 1.407e-08  9.419e-10  4.235e-10  1.365e-09   25.0000 1
 1.408e-08  9.318e-10  4.242e-10  1.356e-09   25.0000 1
 1.409e-08  9.222e-10  4.238e-10  1.346e-09   25.0000 1
 1.410e-08  9.121e-10  4.241e-10  1.336e-09   25.0000 1
 1.411e-08  9.023e-10  4.237e-10  1.326e-09   25.0000 1
 1.412e-08  8.923e-10  4.237e-10  1.316e-09   25.0000 1
 1.413e-08  8.824e-10  4.243e-10  1.307e-09   25.0000 1
 1.414e-08  8.725e-10  4.237e-10  1.296e-09   25.0000 1
 1.415e-08  8.624e-10  4.236e-10  1.286e-09   25.0000 1
 1.416e-08  8.526e-10  4.237e-10  1.276e-09   25.0000 1
 1.417e-08  8.421e-10  4.237e-10  1.266e-09   25.0000 1
 1.418e-08  8.319e-10  4.236e-10  1.255e-09   25.0000 1
 1.419e-08  8.222e-10  4.237e-10  1.246e-09   25.0000 1
 1.420e-08  8.120e-10  4.242e-10  1.236e-09   25.0000 1
 1.421e-08  8.024e-10  4.234e-10  1.226e-09   25.0000 1
 1.422e-08  7.923e-10  4.236e-10  1.216e-09   25.0000 1
 1.423e-08  7.824e-10  4.238e-10  1.206e-09   25.0000 1
 1.424e-08  7.722e-10  4.244e-10  1.197e-09   25.0000 1
 1.425e-08  7.623e-10  4.244e-10  1.187e-09   25.0000 1
 1.426e-08  7.523e-10  4.238e-10  1.176e-09   25.0000 1
 1.427e-08  7.424e-10  4.238e-10  1.166e-09   25.0000 1
 1.428e-08  7.325e-10  4.236e-10  1.156e-09   25.0000 1
 1.429e-08  7.224e-10  4.244e-10  1.147e-09   25.0000 1
 1.430e-08  7.124e-10  4.238e-10  1.136e-09   25.0000 1
 1.431e-08  7.024e-10  4.238e-10  1.126e-09   25.0000 1
 1.432e-08  6.924e-10  4.239e-10  1.116e-09   25.0000 1
 1.433e-08  6.824e-10  4.244e-10  1.107e-09   25.0000 1
 1.434e-08  6.720e-10  4.238e-10  1.096e-09   25.0000 1
 1.435e-08  6.622e-10  4.245e-10  1.087e-09   25.0000 1
 1.436e-08  6.524e-10  4.245e-10  1.077e-09   25.0000 1
 1.437e-08  6.420e-10  4.234e-10  1.065e-09   25.0000 1
 1.438e-08  6.324e-10  4.239e-10  1.056e-09   25.0000 1
 1.439e-08  6.224e-10  4.242e-10  1.047e-09   25.0000 1
 1.440e-08  6.125e-10  4.238e-10  1.036e-09   25.0000 1
 1.441e-08  6.024e-10  4.245e-10  1.027e-09   25.0000 1
 1.442e-08  5.925e-10  4.237e-10  1.016e-09   25.0000 1
 1.443e-08  5.821e-10  4.238e-10  1.006e-09   25.0000 1
 1.444e-08  5.721e-10  4.238e-10  9.960e-10   25.0000 1
 1.445e-08  5.625e-10  4.238e-10  9.863e-10   25.0000 1
 1.446e-08  5.524e-10  4.239e-10  9.763e-10   25.0000 1
 1.447e-08  5.424e-10  4.241e-10  9.665e-10   25.0000 1
 1.448e-08  5.322e-10  4.238e-10  9.560e-10   25.0000 1
 1.449e-08  5.224e-10  4.246e-10  9.469e-10   25.0000 1
 1.450e-08  5.122e-10  4.231e-10  9.353e-10   25.0000 1
 1.451e-08  5.025e-10  4.238e-10  9.263e-10   25.0000 1
 1.452e-08  4.922e-10  4.240e-10  9.162e-10   25.0000 1
 1.453e-08  4.823e-10  4.234e-10  9.057e-10   25.0000 1
 1.454e-08  4.722e-10  4.241e-10  8.962e-10   25.0000 1
 1.455e-08  4.624e-10  4.246e-10  8.870e-10   25.0000 1
 1.456e-08  4.522e-10  4.241e-10  8.763e-10   25.0000 1
 1.457e-08  4.425e-10  4.244e-10  8.669e-10   25.0000 1
 1.458e-08  4.323e-10  4.238e-10  8.561e-10   25.0000 1
 1.459e-08  4.224e-10  4.234e-10  8.458e-10   25.0000 1
 1.460e-08  4.120e-10  4.236e-10  8.355e-10   25.0000 1
 1.461e-08  4.022e-10  4.239e-10  8.262e-10   25.0000 1
 1.462e-08  3.919e-10  4.238e-10  8.157e-10   25.0000 1
 1.463e-08  3.824e-10  4.242e-10  8.065e-10   25.0000 1
 1.464e-08  3.724e-10  4.243e-10  7.967e-10   25.0000 1
 1.465e-08  3.621e-10  4.242e-10  7.863e-10   25.0000 1
 1.466e-08  3.523e-10  4.231e-10  7.754e-10   25.0000 1
 1.467e-08  3.422e-10  4.243e-10  7.665e-10   25.0000 1
 1.468e-08  3.325e-10  4.242e-10  7.567e-10   25.0000 1
 1.469e-08  3.220e-10  4.245e-10  7.465e-10   25.0000 1
 1.470e-08  3.120e-10  4.241e-10  7.361e-10   25.0000 1
 1.471e-08  3.021e-10  4.244e-10  7.266e-10   25.0000 1
 1.472e-08  2.919e-10  4.245e-10  7.164e-10   25.0000 1
 1.473e-08  2.822e-10  4.250e-10  7.072e-10   25.0000 1
 1.474e-08  2.720e-10  4.247e-10  6.966e-10   25.0000 1
 1.475e-08  2.621e-10  4.248e-10  6.868e-10   25.0000 1
 1.476e-08  2.525e-10  4.266e-10  6.792e-10   25.0000 1
 1.477e-08  2.420e-10  4.274e-10  6.694e-10   25.0000 1
 1.478e-08  2.324e-10  4.269e-10  6.594e-10   25.0000 1
 1.479e-08  2.227e-10  4.271e-10  6.498e-10   25.0000 1
 1.480e-08  2.124e-10  4.286e-10  6.411e-10   25.0000 1
 1.481e-08  2.026e-10  4.294e-10  6.320e-10   25.0000 1
 1.482e-08  1.926e-10  4.298e-10  6.224e-10   25.0000 1
 1.483e-08  1.825e-10  4.288e-10  6.112e-10   25.0000 1
 1.484e-08  1.717e-10  4.314e-10  6.032e-10   25.0000 1
 1.485e-08  1.617e-10  4.311e-10  5.929e-10   25.0000 1
 1.486e-08  1.520e-10  4.327e-10  5.847e-10   25.0000 1
 1.487e-08  1.419e-10  4.359e-10  5.778e-10   25.0000 1
 1.488e-08  1.322e-10  4.383e-10  5.706e-10   25.0000 1
 1.489e-08  1.223e-10  4.428e-10  5.651e-10   25.0000 1
 1.490e-08  1.123e-10  4.467e-10  5.590e-10   25.0000 1
 1.491e-08  1.024e-10  4.524e-10  5.547e-10   25.0000 1
 1.492e-08  9.224e-11  4.585e-10  5.508e-10   25.0000 1
 1.493e-08  8.201e-11  4.670e-10  5.490e-10   25.0000 1
 1.494e-08  7.203e-11  4.734e-10  5.455e-10   25.0000 1
 1.495e-08  6.211e-11  4.831e-10  5.452e-10   25.0000 1
 1.496e-08  5.223e-11  4.911e-10  5.434e-10   25.0000 1
 1.497e-08  4.205e-11  5.008e-10  5.429e-10   25.0000 1
 1.498e-08  3.221e-11  5.119e-10  5.441e-10   25.0000 1
 1.499e-08  2.232e-11  5.243e-10  5.466e-10   25.0000 1
 1.500e-08  1.211e-11  5.415e-10  5.536e-10   25.0000 1
 1.501e-08  2.048e-12  5.643e-10  5.664e-10   25.0000 1
 1.502e-08 -7.877e-12  6.055e-10  5.976e-10   25.0000 1
 1.503e-08 -1.789e-11    failed    failed   25.0000 1
 1.504e-08 -2.759e-11    failed    failed   25.0000 1
 1.505e-08 -3.756e-11    failed    failed   25.0000 1
 1.506e-08 -4.748e-11    failed    failed   25.0000 1
 1.507e-08 -5.761e-11    failed    failed   25.0000 1
 1.508e-08 -6.764e-11    failed    failed   25.0000 1
 1.509e-08 -7.764e-11    failed    failed   25.0000 1
 1.510e-08 -8.764e-11    failed    failed   25.0000 1
 1.511e-08 -9.764e-11    failed    failed   25.0000 1
 1.512e-08 -1.076e-10    failed    failed   25.0000 1
 1.513e-08 -1.176e-10    failed    failed   25.0000 1
 1.514e-08 -1.276e-10    failed    failed   25.0000 1
 1.515e-08 -1.376e-10    failed    failed   25.0000 1
 1.516e-08 -1.476e-10    failed    failed   25.0000 1
 1.517e-08 -1.576e-10    failed    failed   25.0000 1
 1.518e-08 -1.676e-10    failed    failed   25.0000 1
 1.519e-08 -1.776e-10    failed    failed   25.0000 1
 1.520e-08 -1.876e-10    failed    failed   25.0000 1
 1.521e-08 -1.976e-10    failed    failed   25.0000 1
 1.522e-08 -2.076e-10    failed    failed   25.0000 1
 1.523e-08 -2.176e-10    failed    failed   25.0000 1
 1.524e-08 -2.276e-10    failed    failed   25.0000 1
 1.525e-08 -2.376e-10    failed    failed   25.0000 1
 1.526e-08 -2.476e-10    failed    failed   25.0000 1
 1.527e-08 -2.576e-10    failed    failed   25.0000 1
 1.528e-08 -2.676e-10    failed    failed   25.0000 1
 1.529e-08 -2.776e-10    failed    failed   25.0000 1
 1.530e-08 -2.876e-10    failed    failed   25.0000 1
 1.531e-08 -2.976e-10    failed    failed   25.0000 1
 1.532e-08 -3.076e-10    failed    failed   25.0000 1
 1.533e-08 -3.176e-10    failed    failed   25.0000 1
 1.534e-08 -3.276e-10    failed    failed   25.0000 1
 1.535e-08 -3.376e-10    failed    failed   25.0000 1
 1.536e-08 -3.476e-10    failed    failed   25.0000 1
 1.537e-08 -3.576e-10    failed    failed   25.0000 1
 1.538e-08 -3.676e-10    failed    failed   25.0000 1
 1.539e-08 -3.776e-10    failed    failed   25.0000 1
 1.540e-08 -3.876e-10    failed    failed   25.0000 1
 1.541e-08 -3.976e-10    failed    failed   25.0000 1
 1.542e-08 -4.076e-10    failed    failed   25.0000 1
 1.543e-08 -4.176e-10    failed    failed   25.0000 1
 1.544e-08 -4.276e-10    failed    failed   25.0000 1
 1.545e-08 -4.376e-10    failed    failed   25.0000 1
 1.546e-08 -4.476e-10    failed    failed   25.0000 1
 1.547e-08 -4.576e-10    failed    failed   25.0000 1
 1.548e-08 -4.676e-10    failed    failed   25.0000 1
 1.549e-08 -4.776e-10    failed    failed   25.0000 1
 1.550e-08 -4.876e-10    failed    failed   25.0000 1
