$DATA1 SOURCE='PrimeSim HSPICE' VERSION='U-2023.03-SP2 linux6' PARAM_COUNT=1
$OPTION MEASFORM=1
.TITLE ''
data_time tdc tcq tdq temper alter#
 1.440e-08  6.125e-10  8.789e-10  1.491e-09   25.0000 1
 1.441e-08  6.074e-10  8.808e-10  1.488e-09   25.0000 1
 1.441e-08  6.024e-10  8.795e-10  1.482e-09   25.0000 1
 1.442e-08  5.975e-10  8.747e-10  1.472e-09   25.0000 1
 1.442e-08  5.925e-10  8.794e-10  1.472e-09   25.0000 1
 1.443e-08  5.875e-10  8.826e-10  1.470e-09   25.0000 1
 1.443e-08  5.821e-10  8.788e-10  1.461e-09   25.0000 1
 1.443e-08  5.775e-10  8.790e-10  1.456e-09   25.0000 1
 1.444e-08  5.721e-10  8.752e-10  1.447e-09   25.0000 1
 1.444e-08  5.670e-10  8.781e-10  1.445e-09   25.0000 1
 1.445e-08  5.625e-10  8.798e-10  1.442e-09   25.0000 1
 1.445e-08  5.573e-10  8.748e-10  1.432e-09   25.0000 1
 1.446e-08  5.522e-10  8.803e-10  1.433e-09   25.0000 1
 1.446e-08  5.472e-10  8.803e-10  1.428e-09   25.0000 1
 1.447e-08  5.424e-10  8.795e-10  1.422e-09   25.0000 1
 1.448e-08  5.375e-10  8.794e-10  1.417e-09   25.0000 1
 1.448e-08  5.322e-10  8.784e-10  1.411e-09   25.0000 1
 1.449e-08  5.275e-10  8.778e-10  1.405e-09   25.0000 1
 1.449e-08  5.223e-10  8.803e-10  1.403e-09   25.0000 1
 1.450e-08  5.175e-10  8.802e-10  1.398e-09   25.0000 1
 1.450e-08  5.122e-10  8.800e-10  1.392e-09   25.0000 1
 1.450e-08  5.071e-10  8.781e-10  1.385e-09   25.0000 1
 1.451e-08  5.025e-10  8.799e-10  1.382e-09   25.0000 1
 1.451e-08  4.973e-10  8.749e-10  1.372e-09   25.0000 1
 1.452e-08  4.922e-10  8.753e-10  1.368e-09   25.0000 1
 1.452e-08  4.872e-10  8.789e-10  1.366e-09   25.0000 1
 1.453e-08  4.825e-10  8.738e-10  1.356e-09   25.0000 1
 1.453e-08  4.771e-10  8.799e-10  1.357e-09   25.0000 1
 1.454e-08  4.722e-10  8.795e-10  1.352e-09   25.0000 1
 1.455e-08  4.673e-10  8.804e-10  1.348e-09   25.0000 1
 1.455e-08  4.624e-10  8.797e-10  1.342e-09   25.0000 1
 1.456e-08  4.574e-10  8.796e-10  1.337e-09   25.0000 1
 1.456e-08  4.522e-10  8.750e-10  1.327e-09   25.0000 1
 1.457e-08  4.474e-10  8.753e-10  1.323e-09   25.0000 1
 1.457e-08  4.425e-10  8.764e-10  1.319e-09   25.0000 1
 1.457e-08  4.372e-10  8.757e-10  1.313e-09   25.0000 1
 1.458e-08  4.323e-10  8.809e-10  1.313e-09   25.0000 1
 1.458e-08  4.274e-10  8.793e-10  1.307e-09   25.0000 1
 1.459e-08  4.224e-10  8.791e-10  1.301e-09   25.0000 1
 1.459e-08  4.172e-10  8.804e-10  1.298e-09   25.0000 1
 1.460e-08  4.120e-10  8.796e-10  1.292e-09   25.0000 1
 1.460e-08  4.077e-10  8.786e-10  1.286e-09   25.0000 1
 1.461e-08  4.022e-10  8.765e-10  1.279e-09   25.0000 1
 1.462e-08  3.970e-10  8.804e-10  1.277e-09   25.0000 1
 1.462e-08  3.919e-10  8.749e-10  1.267e-09   25.0000 1
 1.463e-08  3.872e-10  8.752e-10  1.262e-09   25.0000 1
 1.463e-08  3.824e-10  8.797e-10  1.262e-09   25.0000 1
 1.464e-08  3.769e-10  8.795e-10  1.256e-09   25.0000 1
 1.464e-08  3.724e-10  8.756e-10  1.248e-09   25.0000 1
 1.464e-08  3.673e-10  8.788e-10  1.246e-09   25.0000 1
 1.465e-08  3.624e-10  8.768e-10  1.239e-09   25.0000 1
 1.465e-08  3.571e-10  8.796e-10  1.237e-09   25.0000 1
 1.466e-08  3.523e-10  8.789e-10  1.231e-09   25.0000 1
 1.466e-08  3.472e-10  8.759e-10  1.223e-09   25.0000 1
 1.467e-08  3.423e-10  8.752e-10  1.217e-09   25.0000 1
 1.468e-08  3.375e-10  8.796e-10  1.217e-09   25.0000 1
 1.468e-08  3.325e-10  8.800e-10  1.213e-09   25.0000 1
 1.469e-08  3.270e-10  8.795e-10  1.207e-09   25.0000 1
 1.469e-08  3.219e-10  8.802e-10  1.202e-09   25.0000 1
 1.470e-08  3.174e-10  8.755e-10  1.193e-09   25.0000 1
 1.470e-08  3.120e-10  8.797e-10  1.192e-09   25.0000 1
 1.470e-08  3.073e-10  8.806e-10  1.188e-09   25.0000 1
 1.471e-08  3.021e-10  8.755e-10  1.178e-09   25.0000 1
 1.471e-08  2.974e-10  8.755e-10  1.173e-09   25.0000 1
 1.472e-08  2.919e-10  8.806e-10  1.173e-09   25.0000 1
 1.472e-08  2.870e-10  8.758e-10  1.163e-09   25.0000 1
 1.473e-08  2.822e-10  8.814e-10  1.164e-09   25.0000 1
 1.473e-08  2.774e-10  8.837e-10  1.161e-09   25.0000 1
 1.474e-08  2.724e-10  8.798e-10  1.152e-09   25.0000 1
 1.475e-08  2.671e-10  8.803e-10  1.147e-09   25.0000 1
 1.475e-08  2.620e-10  8.845e-10  1.146e-09   25.0000 1
 1.476e-08  2.571e-10  8.764e-10  1.133e-09   25.0000 1
 1.476e-08  2.525e-10  8.765e-10  1.129e-09   25.0000 1
 1.477e-08  2.469e-10  8.806e-10  1.127e-09   25.0000 1
 1.477e-08  2.420e-10  8.773e-10  1.119e-09   25.0000 1
 1.477e-08  2.375e-10  8.780e-10  1.115e-09   25.0000 1
 1.478e-08  2.322e-10  8.800e-10  1.112e-09   25.0000 1
 1.478e-08  2.274e-10  8.780e-10  1.105e-09   25.0000 1
 1.479e-08  2.227e-10  8.785e-10  1.101e-09   25.0000 1
 1.479e-08  2.176e-10  8.783e-10  1.096e-09   25.0000 1
 1.480e-08  2.124e-10  8.840e-10  1.096e-09   25.0000 1
 1.480e-08  2.076e-10  8.832e-10  1.091e-09   25.0000 1
 1.481e-08  2.026e-10  8.841e-10  1.087e-09   25.0000 1
 1.482e-08  1.971e-10  8.827e-10  1.080e-09   25.0000 1
 1.482e-08  1.926e-10  8.799e-10  1.072e-09   25.0000 1
 1.483e-08  1.873e-10  8.856e-10  1.073e-09   25.0000 1
 1.483e-08  1.825e-10  8.812e-10  1.064e-09   25.0000 1
 1.484e-08  1.767e-10  8.868e-10  1.063e-09   25.0000 1
 1.484e-08  1.717e-10  8.818e-10  1.054e-09   25.0000 1
 1.484e-08  1.672e-10  8.807e-10  1.048e-09   25.0000 1
 1.485e-08  1.617e-10  8.821e-10  1.044e-09   25.0000 1
 1.485e-08  1.572e-10  8.829e-10  1.040e-09   25.0000 1
 1.486e-08  1.520e-10  8.837e-10  1.036e-09   25.0000 1
 1.486e-08  1.469e-10  8.908e-10  1.038e-09   25.0000 1
 1.487e-08  1.419e-10  8.909e-10  1.033e-09   25.0000 1
 1.487e-08  1.371e-10  8.916e-10  1.029e-09   25.0000 1
 1.488e-08  1.322e-10  8.934e-10  1.026e-09   25.0000 1
 1.489e-08  1.273e-10  8.955e-10  1.023e-09   25.0000 1
 1.489e-08  1.223e-10  8.977e-10  1.020e-09   25.0000 1
 1.490e-08  1.170e-10  9.012e-10  1.018e-09   25.0000 1
 1.490e-08  1.123e-10  9.008e-10  1.013e-09   25.0000 1
 1.491e-08  1.077e-10  9.052e-10  1.013e-09   25.0000 1
 1.491e-08  1.024e-10  9.083e-10  1.011e-09   25.0000 1
 1.491e-08  9.724e-11  9.110e-10  1.008e-09   25.0000 1
 1.492e-08  9.224e-11  9.121e-10  1.004e-09   25.0000 1
 1.492e-08  8.703e-11  9.135e-10  1.001e-09   25.0000 1
 1.493e-08  8.201e-11  9.217e-10  1.004e-09   25.0000 1
 1.494e-08  7.708e-11  9.258e-10  1.003e-09   25.0000 1
 1.494e-08  7.203e-11  9.303e-10  1.002e-09   25.0000 1
 1.494e-08  6.697e-11  9.323e-10  9.993e-10   25.0000 1
 1.495e-08  6.211e-11  9.375e-10  9.996e-10   25.0000 1
 1.496e-08  5.719e-11  9.428e-10  1.000e-09   25.0000 1
 1.496e-08  5.223e-11  9.458e-10  9.981e-10   25.0000 1
 1.496e-08  4.722e-11  9.515e-10  9.987e-10   25.0000 1
 1.497e-08  4.205e-11  9.591e-10  1.001e-09   25.0000 1
 1.498e-08  3.715e-11  9.599e-10  9.970e-10   25.0000 1
 1.498e-08  3.221e-11  9.655e-10  9.977e-10   25.0000 1
 1.498e-08  2.713e-11  9.728e-10  9.999e-10   25.0000 1
 1.499e-08  2.232e-11  9.782e-10  1.000e-09   25.0000 1
 1.499e-08  1.716e-11  9.868e-10  1.004e-09   25.0000 1
 1.500e-08  1.211e-11  9.964e-10  1.009e-09   25.0000 1
 1.501e-08  7.331e-12  1.003e-09  1.010e-09   25.0000 1
 1.501e-08  2.049e-12  1.019e-09  1.021e-09   25.0000 1
 1.501e-08 -2.813e-12  1.037e-09  1.034e-09   25.0000 1
 1.502e-08 -7.877e-12  1.060e-09  1.052e-09   25.0000 1
 1.503e-08 -1.306e-11  1.101e-09  1.088e-09   25.0000 1
 1.503e-08 -1.789e-11    failed    failed   25.0000 1
 1.503e-08 -2.263e-11    failed    failed   25.0000 1
 1.504e-08 -2.759e-11    failed    failed   25.0000 1
 1.505e-08 -3.284e-11    failed    failed   25.0000 1
 1.505e-08 -3.756e-11    failed    failed   25.0000 1
 1.505e-08 -4.261e-11    failed    failed   25.0000 1
 1.506e-08 -4.748e-11    failed    failed   25.0000 1
 1.506e-08 -5.253e-11    failed    failed   25.0000 1
 1.507e-08 -5.761e-11    failed    failed   25.0000 1
 1.508e-08 -6.264e-11    failed    failed   25.0000 1
 1.508e-08 -6.764e-11    failed    failed   25.0000 1
 1.508e-08 -7.264e-11    failed    failed   25.0000 1
 1.509e-08 -7.764e-11    failed    failed   25.0000 1
 1.510e-08 -8.264e-11    failed    failed   25.0000 1
 1.510e-08 -8.764e-11    failed    failed   25.0000 1
